RLRA-toSaveinexactSDPR/matpower5.1/case2746wp.m
function mpc = case2746_wp
%CASE2746WP  Power flow data for Polish system - winter 2003-04 evening peak.
%   Please see CASEFORMAT for details on the case file format.
%
%   This case represents the Polish 400, 220 and 110 kV networks during
%   winter 2003-04 evening peak conditions. Multiple centrally
%   dispatchable generators at a bus have not been aggregated.
%   Generators that are not centrally dispatchable in the Polish
%   energy market are given a cost of zero.
%
%   This data was graciously provided by, and is distributed with the
%   permission of, Roman Korab <roman.korab@polsl.pl>.

%   MATPOWER
%   $Id: case2746wp.m 2408 2014-10-22 20:41:33Z ray $

%% MATPOWER Case Format : Version 2
mpc.version = '2';

%%-----  Power Flow Data  -----%%
%% system MVA base
mpc.baseMVA = 100;

%% bus data
%	bus_i	type	Pd	Qd	Gs	Bs	area	Vm	Va	baseKV	zone	Vmax	Vmin	lam_P	lam_Q	mu_Vmax	mu_Vmin
mpc.bus = [
	1	1	0	0	0	0	1	1.1003391	-0.61480726	220	1	1.11	0.95	98.3658	0.1938	0.0000	0.0000;
	2	1	0	0	0	0	1	1.1017662	1.2131549	220	1	1.11	0.95	97.9988	0.1556	0.0000	0.0000;
	3	1	0	0	0	0	1	1.0645289	-26.339776	220	1	1.11	0.95	113.5931	0.8243	0.0000	0.0000;
	4	1	0	0	0	0	1	1.0850159	-6.0862751	220	1	1.11	0.95	101.3462	0.7470	0.0000	0.0000;
	5	1	0	0	0	0	1	1.0850783	-6.0889889	220	1	1.11	0.95	101.3481	0.7457	0.0000	0.0000;
	6	1	0	0	0	0	1	1.059595	-17.220536	220	1	1.11	0.95	106.5828	1.2223	0.0000	0.0000;
	7	1	0	0	0	0	1	1.0597417	-17.210267	220	1	1.11	0.95	106.5743	1.2187	0.0000	0.0000;
	8	1	0	0	0	0	1	1.0286868	-13.591482	400	1	1.05	0.95	105.2553	0.6873	0.0000	0.0000;
	9	1	0	0	0	0	1	1.0287027	-13.586305	400	1	1.05	0.95	105.2527	0.6857	0.0000	0.0000;
	10	1	0	0	0	0	1	1.0408993	-17.565546	220	1	1.11	0.95	107.7378	1.8165	0.0000	0.0000;
	11	1	0	0	0	0	1	1.0407987	-17.552694	220	1	1.11	0.95	107.7369	1.8191	0.0000	0.0000;
	12	1	0	0	0	0	1	1.0408325	-17.544154	220	1	1.11	0.95	107.7347	1.8184	0.0000	0.0000;
	13	1	0	0	0	0	1	1.027382	-11.769431	400	1	1.05	0.95	104.4075	1.0389	0.0000	0.0000;
	14	1	0	0	0	0	1	1.0274267	-11.759591	400	1	1.05	0.95	104.4018	1.0365	0.0000	0.0000;
	15	1	0	0	0	0	1	1.0277821	-16.636616	400	1	1.05	0.95	106.1196	0.0526	0.0000	0.0000;
	16	1	0	0	0	0	1	1.0277821	-16.636616	400	1	1.05	0.95	106.1196	0.0526	0.0000	0.0000;
	17	2	11	40	0	0	1	1.1051114	-21.25728	220	1	1.11	0.95	109.5314	0.0007	0.0000	0.0000;
	18	2	14	40	0	0	1	1.1051329	-21.256172	220	1	1.11	0.95	109.5301	0.0000	0.0000	0.0203;
	19	1	0	0	0	0	1	1.0899007	-4.9335602	220	1	1.11	0.95	100.6721	0.6066	0.0000	0.0000;
	20	1	0	0	0	0	1	1.0899369	-4.9324552	220	1	1.11	0.95	100.6736	0.6058	0.0000	0.0000;
	21	1	0	0	0	0	1	1.0605639	-19.1108	220	1	1.11	0.95	108.3430	1.3062	0.0000	0.0000;
	22	1	0	0	0	0	1	1.0604975	-19.112544	220	1	1.11	0.95	108.3441	1.3075	0.0000	0.0000;
	23	1	0	0	0	0	1	1.0441797	-17.458847	220	1	1.11	0.95	107.6600	1.7291	0.0000	0.0000;
	24	1	0	0	0	0	1	1.091933	-2.8028486	220	1	1.11	0.95	99.8073	0.5296	0.0000	0.0000;
	25	1	0	0	0	0	1	1.0154431	-13.879116	400	1	1.05	0.95	105.4805	0.4745	0.0000	0.0000;
	26	2	46.738	72.054	0	0	1	1.11	-0.25095024	220	1	1.11	0.95	98.1840	0.0000	1871.2524	0.0000;
	27	2	85.493	122.06	0	0	1	1.11	1.4731337	220	1	1.11	0.95	97.8808	0.0000	2497.9903	0.0000;
	28	3	60	110	0	0	1	1.0460529	0	400	1	1.05	0.95	98.8168	-0.1638	0.0000	0.0000;
	29	2	60.097	90	0	0	1	1.0460925	0.00572232	400	1	1.05	0.95	98.8125	-0.1626	0.0000	0.0000;
	30	1	0	0	0	0	1	1.048206	-18.395467	220	1	1.11	0.95	108.2832	1.5095	0.0000	0.0000;
	31	1	0	0	0	0	1	1.045761	-1.4350337	400	1	1.05	0.95	98.9272	-0.4853	0.0000	0.0000;
	32	1	0	0	0	0	1	1.0385822	-17.912484	220	1	1.11	0.95	107.9744	1.8681	0.0000	0.0000;
	33	1	0	0	0	0	1	1.0919388	-2.8017966	220	1	1.11	0.95	99.8069	0.5295	0.0000	0.0000;
	34	1	0	0	0	0	1	1.0925699	-9.5096398	220	1	1.11	0.95	103.0266	0.5256	0.0000	0.0000;
	35	1	0	0	0	0	1	1.0894807	-13.144346	220	2	1.11	0.95	104.6817	0.0239	0.0000	0.0000;
	36	1	0	0	0	0	1	1.0925005	-12.843932	220	2	1.11	0.95	104.6851	-0.0233	0.0000	0.0000;
	37	1	0	0	0	0	1	1.0970263	-11.092748	220	2	1.11	0.95	103.5611	-0.0732	0.0000	0.0000;
	38	1	0	0	0	0	1	1.0970174	-11.097136	220	2	1.11	0.95	103.5634	-0.0730	0.0000	0.0000;
	39	1	0	0	0	0	1	1.0760617	-15.995023	220	2	1.11	0.95	106.6792	-0.1631	0.0000	0.0000;
	40	1	0	0	0	0	1	1.1040849	-9.3848203	220	2	1.11	0.95	102.8022	-0.2150	0.0000	0.0000;
	41	1	0	0	0	0	1	1.1040405	-9.3830473	220	2	1.11	0.95	102.8019	-0.2146	0.0000	0.0000;
	42	1	0	0	0	0	1	1.0435696	-9.7361406	400	2	1.05	0.95	102.8310	-0.3182	0.0000	0.0000;
	43	2	11.436	0	0	0	1	1.1099957	-9.8167066	220	2	1.11	0.95	102.8898	0.0019	0.0000	0.0000;
	44	2	24	0	0	0	1	1.11	-9.7892115	220	2	1.11	0.95	102.8801	0.0000	1267.4360	0.0000;
	45	2	20	0	0	0	1	1.0486321	-10.600385	400	2	1.05	0.95	103.5574	0.0000	0.0000	0.0000;
	46	1	0	0	0	0	1	1.048661	-10.601895	400	2	1.05	0.95	103.5562	-0.0017	0.0000	0.0000;
	47	1	0	0	0	0	1	1.1003191	-9.9747468	220	2	1.11	0.95	103.2216	-0.1332	0.0000	0.0000;
	48	1	0	0	0	0	1	1.0353007	-15.497399	400	2	1.05	0.95	104.6752	-0.3477	0.0000	0.0000;
	49	1	0	0	0	0	1	1.0352697	-15.506312	400	2	1.05	0.95	104.6797	-0.3469	0.0000	0.0000;
	50	1	0	0	0	0	1	1.05	-11.729501	400	2	1.05	0.95	103.9640	-0.4380	2649.8675	0.0000;
	51	1	0	0	0	0	1	1.0831843	-14.831927	220	2	1.11	0.95	106.0233	-0.1063	0.0000	0.0000;
	52	1	0	0	0	0	1	1.0831697	-14.83156	220	2	1.11	0.95	106.0243	-0.1064	0.0000	0.0000;
	53	1	0	0	0	0	1	1.0439979	-11.198006	400	2	1.05	0.95	103.5431	-0.2198	0.0000	0.0000;
	54	1	0	0	0	0	1	1.0439983	-11.196343	400	2	1.05	0.95	103.5419	-0.2206	0.0000	0.0000;
	55	2	12	0	0	0	1	1.1026056	-9.4089303	220	2	1.11	0.95	102.6793	-0.1306	0.0000	0.0000;
	56	2	11.436	0	0	0	1	1.1025184	-9.405703	220	2	1.11	0.95	102.6756	-0.1282	0.0000	0.0000;
	57	2	12	0	0	0	1	1.0456443	-10.170777	400	2	1.05	0.95	102.9624	-0.4555	0.0000	0.0000;
	58	2	11.436	0	0	0	1	1.0456662	-10.175736	400	2	1.05	0.95	102.9649	-0.4554	0.0000	0.0000;
	59	2	167.518	60	0	0	1	1.1017247	-11.30084	220	2	1.11	0.95	103.6382	0.0447	0.0000	0.0000;
	60	1	0	0	0	0	1	1.1017324	-11.300903	220	2	1.11	0.95	103.6376	0.0440	0.0000	0.0000;
	61	1	0	0	0	0	1	1.1005278	-10.134063	220	2	1.11	0.95	103.1603	-0.1600	0.0000	0.0000;
	62	1	0	0	0	0	1	1.1036005	-11.047572	220	2	1.11	0.95	103.6562	0.0311	0.0000	0.0000;
	63	1	0	0	0	0	1	1.1035983	-11.050757	220	2	1.11	0.95	103.6568	0.0317	0.0000	0.0000;
	64	1	0	0	0	0	1	1.0468475	-11.759437	400	2	1.05	0.95	103.3469	-0.6450	0.0000	0.0000;
	65	1	0	0	0	0	1	1.046831	-11.771438	400	2	1.05	0.95	103.3508	-0.6455	0.0000	0.0000;
	66	1	0	0	0	0	1	1.0893159	-12.668676	220	2	1.11	0.95	104.3236	-0.0107	0.0000	0.0000;
	67	1	0	0	0	0	1	1.0914437	-12.423754	220	2	1.11	0.95	104.1800	-0.0365	0.0000	0.0000;
	68	1	0	0	0	0	1	1.083607	-14.320478	220	2	1.11	0.95	105.8181	-0.0576	0.0000	0.0000;
	69	1	0	0	0	0	1	1.1005323	-4.4705794	220	3	1.11	0.95	100.1491	-0.1679	0.0000	0.0000;
	70	1	7.123	0	0	0	1	1.0980231	-9.7009113	220	3	1.11	0.95	103.0168	0.0335	0.0000	0.0000;
	71	1	8.31	0.933	0	0	1	1.0979915	-9.703589	220	3	1.11	0.95	103.0192	0.0343	0.0000	0.0000;
	72	1	0	0	0	0	1	1.1059097	-4.3482203	220	3	1.11	0.95	99.8543	0.0998	0.0000	0.0000;
	73	1	0	0	0	0	1	1.1059616	-4.339125	220	3	1.11	0.95	99.8509	0.0987	0.0000	0.0000;
	74	1	0	0	0	0	1	1.1013537	-4.7646624	220	3	1.11	0.95	100.0408	0.1135	0.0000	0.0000;
	75	1	0	0	0	0	1	1.1013148	-4.7687846	220	3	1.11	0.95	100.0426	0.1140	0.0000	0.0000;
	76	1	0	0	0	0	1	1.1084923	-3.4136449	220	3	1.11	0.95	99.5287	0.0371	0.0000	0.0000;
	77	1	0	0	0	0	1	1.1084612	-3.4216098	220	3	1.11	0.95	99.5330	0.0382	0.0000	0.0000;
	78	2	27	70	0	0	1	1.11	-3.7286027	220	3	1.11	0.95	99.5068	0.0000	748.3478	0.0000;
	79	2	9	21	0	0	1	1.1091061	-3.9026747	220	3	1.11	0.95	99.6306	0.0011	0.0000	0.0000;
	80	1	10.328	2.61	0	0	1	1.0984814	-5.1340225	220	3	1.11	0.95	100.4225	0.2765	0.0000	0.0000;
	81	1	0	0	0	0	1	1.0984976	-5.1327611	220	3	1.11	0.95	100.4220	0.2763	0.0000	0.0000;
	82	2	35	108	0	0	1	1.0434596	-3.6593665	400	3	1.05	0.95	99.2008	0.0000	0.0000	0.0000;
	83	1	0	0	0	0	1	1.1085008	-6.506818	220	3	1.11	0.95	100.5192	0.3124	0.0000	0.0000;
	84	1	0	0	0	0	1	1.1065315	-3.9305775	220	3	1.11	0.95	99.4386	0.0554	0.0000	0.0000;
	85	1	0	0	0	0	1	1.1065344	-3.9324762	220	3	1.11	0.95	99.4405	0.0558	0.0000	0.0000;
	86	1	37.893	12.351	0	0	1	1.1011233	-4.342548	220	3	1.11	0.95	99.9812	-0.1367	0.0000	0.0000;
	87	1	0	0	0	0	1	1.1010914	-4.3484899	220	3	1.11	0.95	99.9832	-0.1370	0.0000	0.0000;
	88	1	0	0	0	0	1	1.1040285	-3.8682504	220	3	1.11	0.95	99.3740	0.0877	0.0000	0.0000;
	89	1	0	0	0	0	1	1.1040076	-3.8696159	220	3	1.11	0.95	99.3753	0.0883	0.0000	0.0000;
	90	1	0	0	0	0	1	1.1043527	-3.8990518	220	3	1.11	0.95	99.7690	-0.1565	0.0000	0.0000;
	91	1	0	0	0	0	1	1.1043307	-3.904573	220	3	1.11	0.95	99.7716	-0.1564	0.0000	0.0000;
	92	1	0	0	0	0	1	1.0455896	-2.2785277	400	3	1.05	0.95	99.4873	-0.2606	0.0000	0.0000;
	93	1	0	0	0	0	1	1.0455942	-2.2803837	400	3	1.05	0.95	99.4875	-0.2610	0.0000	0.0000;
	94	1	0	0	0	0	1	1.1078409	-3.6402286	220	3	1.11	0.95	99.0458	0.0213	0.0000	0.0000;
	95	1	0	0	0	0	1	1.1078802	-3.6395637	220	3	1.11	0.95	99.0452	0.0211	0.0000	0.0000;
	96	1	0	0	0	0	1	1.1052279	-5.5721529	220	3	1.11	0.95	100.2120	0.1872	0.0000	0.0000;
	97	1	0	0	0	0	1	1.1052541	-5.5767843	220	3	1.11	0.95	100.2128	0.1879	0.0000	0.0000;
	98	1	16.027	7.274	0	0	1	1.1054331	-4.6685289	220	3	1.11	0.95	100.0477	-0.0303	0.0000	0.0000;
	99	1	7.764	0.258	0	0	1	1.1054199	-4.6735493	220	3	1.11	0.95	100.0498	-0.0308	0.0000	0.0000;
	100	1	0	0	0	0	1	1.098073	-9.6845182	220	3	1.11	0.95	103.0080	0.0336	0.0000	0.0000;
	101	1	0	0	0	0	1	1.0980546	-9.6842434	220	3	1.11	0.95	103.0072	0.0341	0.0000	0.0000;
	102	1	0	0	0	0	1	1.1036484	-4.4810497	220	3	1.11	0.95	100.1615	0.1646	0.0000	0.0000;
	103	1	0	0	0	0	1	1.1035819	-4.4911311	220	3	1.11	0.95	100.1660	0.1662	0.0000	0.0000;
	104	2	14	40	0	0	1	1.11	-3.3754895	220	3	1.11	0.95	99.0705	0.0000	851.4354	0.0000;
	105	2	14	40	0	0	1	1.1099947	-3.3760543	220	3	1.11	0.95	99.0679	0.0010	0.0000	0.0000;
	106	2	7	18	0	0	1	1.1076732	-3.5666718	220	3	1.11	0.95	99.1312	-0.0000	0.0000	0.0000;
	107	2	8	15	0	0	1	1.1075967	-3.5663387	220	3	1.11	0.95	99.1331	0.0009	0.0000	0.0000;
	108	1	1.044	0	0	0	1	1.1033476	-5.1479288	220	3	1.11	0.95	100.3152	-0.0853	0.0000	0.0000;
	109	1	1.259	0	0	0	1	1.1033898	-5.1544483	220	3	1.11	0.95	100.3166	-0.0846	0.0000	0.0000;
	110	1	0	0	0	0	1	1.1035377	-6.3893921	220	3	1.11	0.95	101.1866	0.0199	0.0000	0.0000;
	111	1	0	0	0	0	1	1.0950251	-5.1667375	220	3	1.11	0.95	100.4766	0.3798	0.0000	0.0000;
	112	1	0	0	0	0	1	1.095049	-5.1665381	220	3	1.11	0.95	100.4764	0.3794	0.0000	0.0000;
	113	1	0	0	0	0	1	1.0995271	-5.044646	220	3	1.11	0.95	100.3684	0.2578	0.0000	0.0000;
	114	1	0	0	0	0	1	1.0995945	-5.0347076	220	3	1.11	0.95	100.3643	0.2564	0.0000	0.0000;
	115	1	0	0	0	0	1	1.0439081	-5.9525365	400	3	1.05	0.95	100.4302	-1.3328	0.0000	0.0000;
	116	2	0	0	0	0	1	1.1077452	-4.3817951	220	3	1.11	0.95	99.8878	0.0005	0.0000	0.0000;
	117	2	8	15	0	0	1	1.1077753	-4.3750278	220	3	1.11	0.95	99.8858	0.0000	0.0000	0.0000;
	118	2	5.5	10	0	0	1	1.1078928	-5.7187611	220	3	1.11	0.95	100.8745	-0.0648	0.0000	0.0000;
	119	1	0	0	0	0	1	1.1078551	-5.7307042	220	3	1.11	0.95	100.8794	-0.0642	0.0000	0.0000;
	120	1	0	0	0	0	1	1.0486473	-10.372175	400	3	1.05	0.95	102.8601	-0.8607	0.0000	0.0000;
	121	1	0	0	0	0	1	1.048686	-10.364416	400	3	1.05	0.95	102.8559	-0.8627	0.0000	0.0000;
	122	1	0	0	0	0	1	1.0499922	-6.1506754	400	3	1.05	0.95	100.5772	-2.3753	0.0000	0.0000;
	123	1	0	0	0	0	1	1.05	-6.1454067	400	3	1.05	0.95	100.5753	-2.3844	29819.5951	0.0000;
	124	1	0	0	0	0	1	1.1038618	-6.4994385	220	3	1.11	0.95	101.3365	-0.0037	0.0000	0.0000;
	125	2	18.343	21.865	0	0	1	1.1083176	-3.9535039	220	3	1.11	0.95	99.5430	0.0000	0.0000	0.0000;
	126	2	28.469	34.292	0	0	1	1.1082749	-3.9550628	220	3	1.11	0.95	99.5460	0.0025	0.0000	0.0000;
	127	2	28	66	0	0	1	1.0426336	-5.1240534	400	3	1.05	0.95	100.0312	-0.6133	0.0000	0.0000;
	128	1	0	0	0	0	1	1.0426497	-5.1264675	400	3	1.05	0.95	100.0321	-0.6163	0.0000	0.0000;
	129	1	0	0	0	0	1	1.1003489	-4.4658462	220	3	1.11	0.95	100.0378	-0.1398	0.0000	0.0000;
	130	1	0	0	0	0	1	1.1003745	-4.4621846	220	3	1.11	0.95	100.0349	-0.1397	0.0000	0.0000;
	131	1	0	0	0	0	1	1.1026419	-4.1537245	220	3	1.11	0.95	99.8703	-0.1381	0.0000	0.0000;
	132	2	3	18	0	0	1	1.11	-2.6939208	220	3	1.11	0.95	99.1843	0.0000	860.4661	0.0000;
	133	2	2	6	0	0	1	1.11	-3.0673769	220	3	1.11	0.95	99.3612	0.0000	428.7704	0.0000;
	134	2	15.447	12.88	0	0	1	1.11	-10.714442	220	4	1.11	0.95	103.4466	0.0000	532.4155	0.0000;
	135	2	5.255	-0.357	0	0	1	1.1098762	-10.723949	220	4	1.11	0.95	103.4495	0.0024	0.0000	0.0000;
	136	1	0	0	0	0	1	1.0804168	-12.976961	220	4	1.11	0.95	102.4302	0.8590	0.0000	0.0000;
	137	1	0	0	0	0	1	1.0862695	-11.160281	220	4	1.11	0.95	101.2356	0.6887	0.0000	0.0000;
	138	1	0	0	0	0	1	1.0208082	-9.8994847	400	4	1.05	0.95	101.1353	0.6360	0.0000	0.0000;
	139	1	0	0	0	0	1	1.0208188	-9.9009404	400	4	1.05	0.95	101.1362	0.6358	0.0000	0.0000;
	140	1	0	0	0	0	1	1.0929466	-21.517302	220	4	1.11	0.95	110.4019	0.4199	0.0000	0.0000;
	141	1	0	0	0	0	1	1.0936734	-27.850208	220	4	1.11	0.95	114.1140	0.4044	0.0000	0.0000;
	142	1	0	0	0	0	1	1.0936734	-27.850208	220	4	1.11	0.95	114.1140	0.4044	0.0000	0.0000;
	143	1	0	0	0	0	1	1.0979678	-24.81337	220	4	1.11	0.95	111.2129	0.8957	0.0000	0.0000;
	144	1	0	0	0	0	1	1.0967448	-13.511963	220	4	1.11	0.95	101.8406	0.4787	0.0000	0.0000;
	145	1	0	0	0	0	1	1.0967448	-13.511963	220	4	1.11	0.95	101.8406	0.4787	0.0000	0.0000;
	146	2	10.954	-0.465	0	0	1	1.1096665	-13.527397	220	4	1.11	0.95	104.8461	0.0247	0.0000	0.0000;
	147	2	10.812	-0.465	0	0	1	1.1096461	-13.538207	220	4	1.11	0.95	104.8485	0.0260	0.0000	0.0000;
	148	2	11.5	6.86	0	0	1	1.11	-25.675039	220	4	1.11	0.95	112.2754	0.0000	1722.1892	0.0000;
	149	1	1.634	3.038	0	0	1	1.1099958	-25.669786	220	4	1.11	0.95	112.2713	0.0006	0.0000	0.0000;
	150	2	8.087	-0.38	0	0	1	1.0367199	-22.19321	400	4	1.05	0.95	111.2998	-0.2377	0.0000	0.0000;
	151	2	16.174	-0.76	0	0	1	1.0367522	-22.189004	400	4	1.05	0.95	111.2966	-0.2386	0.0000	0.0000;
	152	1	0	0	0	0	1	1.0577636	-21.642084	220	4	1.11	0.95	111.0636	1.8396	0.0000	0.0000;
	153	1	0	0	0	0	1	1.0746088	-20.259864	220	4	1.11	0.95	108.1496	1.8476	0.0000	0.0000;
	154	1	0	0	0	0	1	1.0746911	-20.253562	220	4	1.11	0.95	108.1448	1.8458	0.0000	0.0000;
	155	2	30.555	-3.555	0	0	1	1.11	-7.0014325	220	4	1.11	0.95	98.9764	0.0000	6606.4137	0.0000;
	156	2	14.679	-3.566	0	0	1	1.11	-8.0966014	220	4	1.11	0.95	99.5878	0.0000	8240.7403	0.0000;
	157	1	0	0	0	0	1	1.11	-7.0014325	220	4	1.11	0.95	98.9764	0.0000	0.0000	0.0000;
	158	1	0	0	0	0	1	1.0349647	-6.6407189	400	4	1.05	0.95	99.4370	0.1499	0.0000	0.0000;
	159	2	7.385	-1.783	0	0	1	1.0350106	-6.6353335	400	4	1.05	0.95	99.4353	0.1487	0.0000	0.0000;
	160	1	0	0	0	0	1	1.0920139	-28.060831	220	4	1.11	0.95	114.3792	0.4216	0.0000	0.0000;
	161	1	0	0	0	0	1	1.0920139	-28.060831	220	4	1.11	0.95	114.3792	0.4216	0.0000	0.0000;
	162	1	0	0	0	0	1	1.0178137	-10.878788	400	4	1.05	0.95	101.7681	0.8220	0.0000	0.0000;
	163	1	0	0	0	0	1	1.0249576	-9.3400021	400	4	1.05	0.95	101.0197	0.5666	0.0000	0.0000;
	164	1	0	0	0	0	1	1.024957	-9.3420899	400	4	1.05	0.95	101.0201	0.5666	0.0000	0.0000;
	165	2	4.293	-8.964	0	0	1	1.11	-13.624283	220	4	1.11	0.95	104.8666	0.0000	2151.3956	0.0000;
	166	2	23.077	7.176	0	0	1	1.1099978	-13.642791	220	4	1.11	0.95	104.8772	0.0020	0.0000	0.0000;
	167	1	0	0	0	0	1	1.11	-13.624283	220	4	1.11	0.95	104.8666	0.0000	0.0000	0.0000;
	168	1	0	0	0	0	1	1.080865	-26.369943	220	4	1.11	0.95	113.8019	0.1600	0.0000	0.0000;
	169	1	0	0	0	0	1	1.0928314	-27.962378	220	4	1.11	0.95	114.2024	0.4189	0.0000	0.0000;
	170	1	0	0	0	0	1	1.0863977	-22.458467	220	4	1.11	0.95	111.1430	0.5568	0.0000	0.0000;
	171	1	0	0	0	0	1	1.0863007	-22.451991	220	4	1.11	0.95	111.1408	0.5584	0.0000	0.0000;
	172	1	0	0	0	0	1	1.0057335	-23.496497	400	4	1.05	0.95	111.4856	0.4789	0.0000	0.0000;
	173	1	0	0	0	0	1	1.0057335	-23.496497	400	4	1.05	0.95	111.4856	0.4789	0.0000	0.0000;
	174	1	0	0	0	0	1	1.0476566	-17.892455	220	4	1.11	0.95	107.7998	2.5845	0.0000	0.0000;
	175	1	0	0	0	0	1	1.0476686	-17.885603	220	4	1.11	0.95	107.7990	2.5843	0.0000	0.0000;
	176	1	0	0	0	0	1	1.084794	-22.987556	220	4	1.11	0.95	111.4317	0.5802	0.0000	0.0000;
	177	1	0	0	0	0	1	1.0867231	-12.489339	220	4	1.11	0.95	102.1816	0.7107	0.0000	0.0000;
	178	1	0	0	0	0	1	1.0867623	-12.483073	220	4	1.11	0.95	102.1813	0.7101	0.0000	0.0000;
	179	1	0	0	0	0	1	1.0899616	-11.958749	220	4	1.11	0.95	102.2825	0.6845	0.0000	0.0000;
	180	1	0	0	0	0	1	1.0899616	-11.958749	220	4	1.11	0.95	102.2825	0.6845	0.0000	0.0000;
	181	1	0	0	0	0	1	1.0449477	-19.418635	220	4	1.11	0.95	108.4654	2.6634	0.0000	0.0000;
	182	1	0	0	0	0	1	1.0474502	-21.786143	220	5	1.11	0.95	109.5467	-0.0766	0.0000	0.0000;
	183	1	0	0	0	0	1	1.11	-23.407235	220	5	1.11	0.95	110.9010	-1.5077	3341.3081	0.0000;
	184	1	0	0	0	0	1	1.0362829	-21.672063	400	5	1.05	0.95	110.5637	-0.5762	0.0000	0.0000;
	185	1	0	0	0	0	1	1.036306	-21.676526	400	5	1.05	0.95	110.5665	-0.5760	0.0000	0.0000;
	186	1	0	0	0	0	1	1.0181489	-21.198101	400	5	1.05	0.95	109.9911	0.0207	0.0000	0.0000;
	187	1	0	0	0	0	1	1.0181684	-21.2021	400	5	1.05	0.95	109.9940	0.0207	0.0000	0.0000;
	188	1	0	0	0	0	1	1.0217282	-25.032232	220	5	1.11	0.95	112.0495	0.4732	0.0000	0.0000;
	189	1	0	0	0	0	1	1.021804	-25.03367	220	5	1.11	0.95	112.0501	0.4725	0.0000	0.0000;
	190	1	0	0	0	0	1	1.0716712	-22.614136	220	5	1.11	0.95	109.8131	-0.4616	0.0000	0.0000;
	191	1	0	0	0	0	1	1.0715551	-22.615617	220	5	1.11	0.95	109.8138	-0.4625	0.0000	0.0000;
	192	1	0	0	0	0	1	0.99118643	-19.908396	400	5	1.05	0.95	108.9619	0.0646	0.0000	0.0000;
	193	1	0	0	0	0	1	1.0567984	-20.966479	220	5	1.11	0.95	109.2100	0.0979	0.0000	0.0000;
	194	1	0	0	0	0	1	1.056876	-20.962637	220	5	1.11	0.95	109.2090	0.0981	0.0000	0.0000;
	195	1	0	0	0	0	1	1.0075635	-23.167247	400	5	1.05	0.95	111.1787	0.1111	0.0000	0.0000;
	196	1	0	0	0	0	1	1.0075162	-23.172128	400	5	1.05	0.95	111.1820	0.1117	0.0000	0.0000;
	197	1	0	0	0	0	1	1.0630659	-25.644346	220	5	1.11	0.95	112.6796	0.3221	0.0000	0.0000;
	198	1	0	0	0	0	1	1.0631118	-25.637578	220	5	1.11	0.95	112.6765	0.3220	0.0000	0.0000;
	199	1	0	0	0	0	1	1.0382243	-19.747847	400	5	1.05	0.95	109.5722	-0.3075	0.0000	0.0000;
	200	1	0	0	0	0	1	1.0382491	-19.742409	400	5	1.05	0.95	109.5718	-0.3087	0.0000	0.0000;
...
];

%% generator data
%	bus	Pg	Qg	Qmax	Qmin	Vg	mBase	status	Pmax	Pmin	Pc1	Pc2	Qc1min	Qc1max	Qc2min	Qc2max	ramp_agc	ramp_10	ramp_30	ramp_q	apf	mu_Pmax	mu_Pmin	mu_Qmax	mu_Qmin
mpc.gen = [
	17	140	119.976	120	-10	1.09088	233.2	1	200	140	0	0	0	0	0	0	0	0	0	0	0	0.0000	3.2486	0.0007	0.0000;
	18	140	43.0475	120	-10	1.09091	233.2	1	200	140	0	0	0	0	0	0	0	0	0	0	0	0.0000	3.2499	0.0000	0.0000;
	26	370	-10	220	-10	1.09091	430.5	1	370	290	0	0	0	0	0	0	0	0	0	0	0	22.0840	0.0000	0.0000	0.0000;
	26	360	210.554	220	-10	1.09091	421.9	1	360	290	0	0	0	0	0	0	0	0	0	0	0	22.0840	0.0000	0.0000	0.0000;
	27	360	45.0036	220	-10	1.09091	421.9	1	360	290	0	0	0	0	0	0	0	0	0	0	0	21.7808	0.0000	0.0000	0.0000;
	27	370	219.914	220	-10	1.09091	430.5	1	370	290	0	0	0	0	0	0	0	0	0	0	0	21.7808	0.0000	0.0000	0.0000;
	27	370	-10	220	-10	1.09091	430.5	1	370	290	0	0	0	0	0	0	0	0	0	0	0	21.7808	0.0000	0.0000	0.0000;
	28	370	-10	220	-10	1.0325	430.5	1	370	290	0	0	0	0	0	0	0	0	0	0	0	22.7168	0.0000	0.0000	0.1638;
	28	370	-10	220	-10	1.0325	430.5	1	370	290	0	0	0	0	0	0	0	0	0	0	0	22.7168	0.0000	0.0000	0.1638;
	28	370	-10	220	-10	1.0325	430.5	1	370	290	0	0	0	0	0	0	0	0	0	0	0	22.7168	0.0000	0.0000	0.1638;
	29	370	-10	220	-10	1.0325	430.5	1	370	290	0	0	0	0	0	0	0	0	0	0	0	22.7125	0.0000	0.0000	0.1626;
	29	370	-10	220	-10	1.0325	430.5	1	370	290	0	0	0	0	0	0	0	0	0	0	0	22.7125	0.0000	0.0000	0.1626;
	29	370	-10	220	-10	1.0325	430.5	1	370	290	0	0	0	0	0	0	0	0	0	0	0	22.7125	0.0000	0.0000	0.1626;
	43	215	119.977	120	-20	1.09091	246.2	1	215	135	0	0	0	0	0	0	0	0	0	0	0	0.8398	0.0000	0.0019	0.0000;
	43	0	0	120	-20	1.09091	275.3	0	247.8	135	0	0	0	0	0	0	0	0	0	0	0	0.0000	0.0000	0.0000	0.0000;
	43	247.8	20.7197	120	-20	1.09091	275.3	1	247.8	135	0	0	0	0	0	0	0	0	0	0	0	0.8398	0.0000	0.0019	0.0000;
	44	225	-12.294	120	-20	1.09096	255	1	225	135	0	0	0	0	0	0	0	0	0	0	0	0.8301	0.0000	0.0000	0.0000;
	44	225	-2.43726	120	-20	1.09096	255	1	225	135	0	0	0	0	0	0	0	0	0	0	0	0.8301	0.0000	0.0000	0.0000;
	44	0	0	120	-20	1.09096	255	0	225	135	0	0	0	0	0	0	0	0	0	0	0	0.0000	0.0000	0.0000	0.0000;
	45	0	0	350	-40	1.0325	610.3	0	500	350	0	0	0	0	0	0	0	0	0	0	0	0.0000	0.0000	0.0000	0.0000;
	45	500	22.4277	350	-40	1.0325	610.3	1	500	350	0	0	0	0	0	0	0	0	0	0	0	1.5074	0.0000	0.0000	0.0000;
	55	130	-20	120	-20	1.09121	255	1	225	130	0	0	0	0	0	0	0	0	0	0	0	0.0000	2.6707	0.0000	0.1306;
	56	130	-20.001	120	-20.001	1.09115	255	1	225	130	0	0	0	0	0	0	0	0	0	0	0	0.0000	2.6744	0.0000	0.1282;
	56	130	-20.001	120	-20.001	1.09115	255	1	225	130	0	0	0	0	0	0	0	0	0	0	0	0.0000	2.6744	0.0000	0.1282;
	57	130	-20	120	-20	1.03336	255	1	225	130	0	0	0	0	0	0	0	0	0	0	0	0.0000	2.3876	0.0000	0.4555;
	58	0	0	120	-20	1.03337	255	0	225	130	0	0	0	0	0	0	0	0	0	0	0	0.0000	0.0000	0.0000	0.0000;
	58	130	-20.006	120	-20.006	1.03337	255	1	225	130	0	0	0	0	0	0	0	0	0	0	0	0.0000	2.3851	0.0000	0.4554;
	58	130	-20.006	120	-20.006	1.03337	255	1	225	130	0	0	0	0	0	0	0	0	0	0	0	0.0000	2.3851	0.0000	0.4554;
	59	78.5	33.64	33.64	0	1.08415	85.4	1	78.5	78.5	0	0	0	0	0	0	0	0	0	0	0	103.6382	0.0000	0.0447	0.0000;
	78	225	8.24513	105	5	1.09091	248.3	1	225	140	0	0	0	0	0	0	0	0	0	0	0	4.1968	0.0000	0.0000	0.0000;
	78	225	105	105	5	1.09091	248.3	1	225	140	0	0	0	0	0	0	0	0	0	0	0	4.1968	0.0000	0.0000	0.0000;
	79	0	0	105	5	1.09034	243.8	0	220	140	0	0	0	0	0	0	0	0	0	0	0	0.0000	0.0000	0.0000	0.0000;
	79	0	0	105	5	1.09034	248.3	0	225	140	0	0	0	0	0	0	0	0	0	0	0	0.0000	0.0000	0.0000	0.0000;
	79	225	16.5743	105	5	1.09034	248.3	1	225	140	0	0	0	0	0	0	0	0	0	0	0	4.3206	0.0000	0.0011	0.0000;
	82	380	-16.9664	192	-37	1.02993	425.8	1	380	220	0	0	0	0	0	0	0	0	0	0	0	9.1708	0.0000	0.0000	0.0000;
	82	370	-4.67553	174	-19	1.02993	408.9	1	370	220	0	0	0	0	0	0	0	0	0	0	0	9.1708	0.0000	0.0000	0.0000;
	104	225	46.9887	113	-48	1.09091	251.8	1	225	134	0	0	0	0	0	0	0	0	0	0	0	6.2905	0.0000	0.0000	0.0000;
	105	225	6.24023	113	-48	1.09091	251.8	1	225	134	0	0	0	0	0	0	0	0	0	0	0	6.2879	0.0000	0.0010	0.0000;
	106	120	71.0379	90	-5	1.09091	150	1	120	79	0	0	0	0	0	0	0	0	0	0	0	5.0412	0.0000	0.0000	0.0000;
	107	120	-4.95126	90	-5	1.09091	150	1	120	79	0	0	0	0	0	0	0	0	0	0	0	5.0431	0.0000	0.0009	0.0000;
	116	0	0	90	-20	1.09042	150	0	120	90	0	0	0	0	0	0	0	0	0	0	0	0.0000	0.0000	0.0000	0.0000;
	117	120	16.5064	90	-20	1.09046	150	1	120	70	0	0	0	0	0	0	0	0	0	0	0	2.7658	0.0000	0.0000	0.0000;
	118	110	33	68	33	1.089	129.3	1	110	80	0	0	0	0	0	0	0	0	0	0	0	1.3545	0.0000	0.0000	0.0648;
	125	215	35.04	113	-11	1.09091	242.9	1	215	160	0	0	0	0	0	0	0	0	0	0	0	8.3830	0.0000	0.0000	0.0000;
	126	225	84	84	-5	1.09082	240.2	1	225	140	0	0	0	0	0	0	0	0	0	0	0	8.3860	0.0000	0.0025	0.0000;
	126	0	0	80	-5	1.09082	229.4	0	215	160	0	0	0	0	0	0	0	0	0	0	0	0.0000	0.0000	0.0000	0.0000;
	127	225	-7.498	79	-7.498	1.02869	238.5	1	225	140	0	0	0	0	0	0	0	0	0	0	0	8.8712	0.0000	0.0000	0.6133;
	127	220	-10	100	-10	1.02869	241.7	1	220	160	0	0	0	0	0	0	0	0	0	0	0	8.8712	0.0000	0.0000	0.6133;
	132	125	-3.67769	40	-38	1.09091	131.2	1	125	74	0	0	0	0	0	0	0	0	0	0	0	99.1743	0.0000	0.0000	0.0000;
	132	125	15.9334	40	-38	1.09091	131.2	1	125	74	0	0	0	0	0	0	0	0	0	0	0	99.1743	0.0000	0.0000	0.0000;
	133	0	0	40	-38	1.09091	131.2	0	125	74	0	0	0	0	0	0	0	0	0	0	0	0.0000	0.0000	0.0000	0.0000;
	133	125	16.4325	40	-38	1.09091	131.2	1	125	74	0	0	0	0	0	0	0	0	0	0	0	99.3512	0.0000	0.0000	0.0000;
	134	0	0	90	0	1.08882	150	0	120	102	0	0	0	0	0	0	0	0	0	0	0	0.0000	0.0000	0.0000	0.0000;
	134	120	66.904	90	0	1.08882	150	1	120	100	0	0	0	0	0	0	0	0	0	0	0	11.0166	0.0000	0.0000	0.0000;
	135	0	0	90	0	1.08867	150	0	120	102	0	0	0	0	0	0	0	0	0	0	0	0.0000	0.0000	0.0000	0.0000;
	146	50	12	12	0	1.09012	51.4	1	50	30	0	0	0	0	0	0	0	0	0	0	0	8.4261	0.0000	0.0247	0.0000;
	146	50	12	12	0	1.09012	51.4	1	50	30	0	0	0	0	0	0	0	0	0	0	0	8.4261	0.0000	0.0247	0.0000;
	147	0	0	90	0	1.09011	150	0	120	90	0	0	0	0	0	0	0	0	0	0	0	0.0000	0.0000	0.0000	0.0000;
	148	90	37.8554	120	0	1.09091	252.4	1	222	90	0	0	0	0	0	0	0	0	0	0	0	0.0000	3.7346	0.0000	0.0000;
	148	0	0	120	0	1.09091	237.5	0	205	135	0	0	0	0	0	0	0	0	0	0	0	0.0000	0.0000	0.0000	0.0000;
	148	0	0	120	0	1.09091	237.5	0	205	135	0	0	0	0	0	0	0	0	0	0	0	0.0000	0.0000	0.0000	0.0000;
	148	90	0.151315	120	0	1.09091	252.4	1	222	90	0	0	0	0	0	0	0	0	0	0	0	0.0000	3.7346	0.0000	0.0000;
	150	90	0	120	0	1.03246	252.4	1	222	90	0	0	0	0	0	0	0	0	0	0	0	0.0000	4.7102	0.0000	0.2377;
	151	90	0	120	0	1.0325	252.4	1	222	90	0	0	0	0	0	0	0	0	0	0	0	0.0000	4.7134	0.0000	0.2386;
	151	90	0	120	0	1.0325	252.4	1	222	90	0	0	0	0	0	0	0	0	0	0	0	0.0000	4.7134	0.0000	0.2386;
	155	235	0.232319	120	0	1.09091	263.9	1	235	94	0	0	0	0	0	0	0	0	0	0	0	0.1364	0.0000	0.0000	0.0000;
	155	235	11.1041	120	0	1.09091	263.9	1	235	94	0	0	0	0	0	0	0	0	0	0	0	0.1364	0.0000	0.0000	0.0000;
	155	0	0	120	0	1.09091	237.5	0	205	130	0	0	0	0	0	0	0	0	0	0	0	0.0000	0.0000	0.0000	0.0000;
	155	261	0	120	0	1.09091	287.3	1	261	104	0	0	0	0	0	0	0	0	0	0	0	0.1364	0.0000	0.0000	0.0000;
	156	0	0	120	0	1.09091	237.5	0	205	130	0	0	0	0	0	0	0	0	0	0	0	0.0000	0.0000	0.0000	0.0000;
	156	205	12.5903	120	0	1.09091	237.5	1	205	130	0	0	0	0	0	0	0	0	0	0	0	0.7478	0.0000	0.0000	0.0000;
	156	206	10.0689	120	0	1.09091	238.4	1	206	120	0	0	0	0	0	0	0	0	0	0	0	0.7478	0.0000	0.0000	0.0000;
	156	206	5.87534	120	0	1.09091	238.4	1	206	120	0	0	0	0	0	0	0	0	0	0	0	0.7478	0.0000	0.0000	0.0000;
	159	206	120	120	0	1.00535	238.4	1	206	120	0	0	0	0	0	0	0	0	0	0	0	0.5953	0.0000	0.1487	0.0000;
	165	200	-0.009	120	-0.009	1.09084	233.2	1	200	150	0	0	0	0	0	0	0	0	0	0	0	15.6466	0.0000	0.0000	0.0000;
	165	200	9.20043	120	-0.009	1.09084	233.2	1	200	150	0	0	0	0	0	0	0	0	0	0	0	15.6466	0.0000	0.0000	0.0000;
	166	200	119.931	120	0	1.09091	233.2	1	200	150	0	0	0	0	0	0	0	0	0	0	0	15.6572	0.0000	0.0020	0.0000;
	166	200	27.8129	120	0	1.09091	233.2	1	200	150	0	0	0	0	0	0	0	0	0	0	0	15.6572	0.0000	0.0020	0.0000;
	205	179	-54.0932	110	-60	1.0325	210.1	1	179	140	0	0	0	0	0	0	0	0	0	0	0	109.4271	0.0000	0.0004	0.0000;
	205	179	-50.3535	110	-60	1.0325	210.1	1	179	140	0	0	0	0	0	0	0	0	0	0	0	109.4271	0.0000	0.0004	0.0000;
	205	0	0	110	-60	1.0325	210.1	0	179	140	0	0	0	0	0	0	0	0	0	0	0	0.0000	0.0000	0.0000	0.0000;
	206	179	23.1183	110	-60	1.0325	210.1	1	179	140	0	0	0	0	0	0	0	0	0	0	0	109.4273	0.0000	0.0000	0.0000;
	215	37.079	0	20	0	1.08646	58.5	1	37.079	37.079	0	0	0	0	0	0	0	0	0	0	0	107.6029	0.0000	0.0000	0.0000;
	215	33.708	5.8236	20	0	1.08646	53.9	1	33.708	33.708	0	0	0	0	0	0	0	0	0	0	0	107.6029	0.0000	0.0000	0.0000;
	215	33.708	0	20	0	1.08646	53.9	1	33.708	33.708	0	0	0	0	0	0	0	0	0	0	0	107.6029	0.0000	0.0000	0.0000;
	215	15.506	0	20	0	1.08646	30.5	1	15.506	15.506	0	0	0	0	0	0	0	0	0	0	0	107.6029	0.0000	0.0000	0.0000;
	239	4	8	8	0	1.03337	15.4	1	4	4	0	0	0	0	0	0	0	0	0	0	0	112.9996	0.0000	2.2671	0.0000;
	246	370	89.8042	220	-14	1.03502	430.5	1	370	290	0	0	0	0	0	0	0	0	0	0	0	21.9779	0.0000	0.0000	0.0000;
	291	2	2	2	0	1.06439	3.2	1	2	2	0	0	0	0	0	0	0	0	0	0	0	108.0721	0.0000	1.6229	0.0000;
	294	3	2	2	0	1.05278	4.8	1	3	3	0	0	0	0	0	0	0	0	0	0	0	111.8991	0.0000	1.2777	0.0000;
	306	9.167	7	7	0	1.05332	24	1	9.167	9.167	0	0	0	0	0	0	0	0	0	0	0	103.3043	0.0000	0.9479	0.0000;
	306	16.296	7	7	0	1.05332	27.9	1	16.296	16.296	0	0	0	0	0	0	0	0	0	0	0	103.3043	0.0000	0.9479	0.0000;
	306	11.204	7.616	7.616	6	1.05332	31	1	11.204	11.204	0	0	0	0	0	0	0	0	0	0	0	103.3043	0.0000	0.9479	0.0000;
	306	9.167	7	7	0	1.05332	26.9	1	9.167	9.167	0	0	0	0	0	0	0	0	0	0	0	103.3043	0.0000	0.9479	0.0000;
	306	9.167	7.928	7.928	0	1.05332	28.1	1	9.167	9.167	0	0	0	0	0	0	0	0	0	0	0	103.3043	0.0000	0.9479	0.0000;
	307	36.5	15	15	0	1.05854	57	1	36.5	36.5	0	0	0	0	0	0	0	0	0	0	0	103.3021	0.0000	0.6146	0.0000;
	307	36.5	15	15	0	1.05854	57	1	36.5	36.5	0	0	0	0	0	0	0	0	0	0	0	103.3021	0.0000	0.6146	0.0000;
	308	32	15	15	0	1.067	36.7	1	32	32	0	0	0	0	0	0	0	0	0	0	0	102.6465	0.0000	0.4584	0.0000;
	308	40	17.596	17.596	0	1.067	57.7	1	40	40	0	0	0	0	0	0	0	0	0	0	0	102.6465	0.0000	0.4584	0.0000;
	310	35	20	20	0	1.07303	53.9	1	35	35	0	0	0	0	0	0	0	0	0	0	0	101.5140	0.0000	0.7376	0.0000;
	310	75	27.247	27.247	0	1.07303	103.6	1	75	75	0	0	0	0	0	0	0	0	0	0	0	101.5140	0.0000	0.7376	0.0000;
	311	45	40	40	0	1.06272	64	1	45	45	0	0	0	0	0	0	0	0	0	0	0	101.8647	0.0000	0.5093	0.0000;
	362	37.8	12	12	0	1.08888	47.8	1	37.8	37.8	0	0	0	0	0	0	0	0	0	0	0	107.3954	0.0000	0.5000	0.0000;
	363	37.8	12	12	0	1.06039	47.8	1	37.8	37.8	0	0	0	0	0	0	0	0	0	0	0	109.5339	0.0000	1.5579	0.0000;
	364	37.8	11.8318	12	0	1.1049	47.8	1	37.8	37.8	0	0	0	0	0	0	0	0	0	0	0	106.0017	0.0000	0.0000	0.0000;
	364	45	7.03822	12	0	1.1049	71	1	45	45	0	0	0	0	0	0	0	0	0	0	0	106.0017	0.0000	0.0000	0.0000;
	365	37.8	12	12	0	1.06981	47.8	1	37.8	37.8	0	0	0	0	0	0	0	0	0	0	0	108.6493	0.0000	1.5359	0.0000;
	365	37.8	12	12	0	1.06981	47.8	1	37.8	37.8	0	0	0	0	0	0	0	0	0	0	0	108.6493	0.0000	1.5359	0.0000;
	382	15	0.0149313	10	0	1.08182	55.9	1	55	15	0	0	0	0	0	0	0	0	0	0	0	0.0000	3.9334	0.0000	0.0000;
	382	120	84.8598	120	-10	1.08182	255.9	1	226	120	0	0	0	0	0	0	0	0	0	0	0	0.0000	3.9334	0.0000	0.0000;
	383	15	0	10	0	1.10054	55.9	1	55	15	0	0	0	0	0	0	0	0	0	0	0	0.0000	3.2065	0.0000	0.1108;
	386	3	2	2	0	1.05805	4.8	1	3	3	0	0	0	0	0	0	0	0	0	0	0	104.2076	0.0000	0.5520	0.0000;
	421	4	4	4	0	1.04857	7.7	1	4	4	0	0	0	0	0	0	0	0	0	0	0	110.1731	0.0000	2.1108	0.0000;
	431	7	5.90765	8	0	1.08943	13.6	1	7	7	0	0	0	0	0	0	0	0	0	0	0	109.5608	0.0000	0.0000	0.0000;
	440	2.5	2	2	0	1.0288	3.6	1	2.5	2.5	0	0	0	0	0	0	0	0	0	0	0	101.3275	0.0000	0.7112	0.0000;
	447	3.5	17.0797	20	0	1.0498	21.3	1	3.5	3.5	0	0	0	0	0	0	0	0	0	0	0	109.2894	0.0000	0.0000	0.0000;
	447	3.5	0.691168	20	0	1.0498	21.3	1	3.5	3.5	0	0	0	0	0	0	0	0	0	0	0	109.2894	0.0000	0.0000	0.0000;
	463	0	2	2	0	1.0465	4	1	0	0	0	0	0	0	0	0	0	0	0	0	0	111.1153	0.0000	0.2129	0.0000;
	482	1.4	0.7	0.7	0	1.02656	1.7	1	1.4	1.4	0	0	0	0	0	0	0	0	0	0	0	102.0959	0.0000	0.8760	0.0000;
	490	3.5	3	3	0	1.05535	5.3	1	3.5	3.5	0	0	0	0	0	0	0	0	0	0	0	108.2075	0.0000	1.9900	0.0000;
	522	0	0	1	0	1.06929	1.9	1	0	0	0	0	0	0	0	0	0	0	0	0	0	101.7872	0.0000	0.0000	0.2246;
	533	0.5	1	1	0	1.07198	1.9	1	0.5	0.5	0	0	0	0	0	0	0	0	0	0	0	108.8685	0.0000	1.0847	0.0000;
	534	35.89	14	14	0	1.06429	53.9	1	35.89	35.89	0	0	0	0	0	0	0	0	0	0	0	107.9674	0.0000	1.4176	0.0000;
	534	22.086	14	14	0	1.06429	34.9	1	22.086	22.086	0	0	0	0	0	0	0	0	0	0	0	107.9674	0.0000	1.4176	0.0000;
	534	22.086	14	14	0	1.06429	34.9	1	22.086	22.086	0	0	0	0	0	0	0	0	0	0	0	107.9674	0.0000	1.4176	0.0000;
	534	72.469	24.001	24.001	0	1.06429	107.7	1	72.469	72.469	0	0	0	0	0	0	0	0	0	0	0	107.9674	0.0000	1.4176	0.0000;
	534	72.469	24.001	24.001	0	1.06429	107.7	1	72.469	72.469	0	0	0	0	0	0	0	0	0	0	0	107.9674	0.0000	1.4176	0.0000;
	535	24.573	17.5	17.5	0	1.05783	36.5	1	24.573	24.573	0	0	0	0	0	0	0	0	0	0	0	107.8909	0.0000	1.6074	0.0000;
	535	23.805	17.5	17.5	0	1.05783	35.6	1	23.805	23.805	0	0	0	0	0	0	0	0	0	0	0	107.8909	0.0000	1.6074	0.0000;
	535	95.99	28.002	28.002	0	1.05783	128.1	1	95.99	95.99	0	0	0	0	0	0	0	0	0	0	0	107.8909	0.0000	1.6074	0.0000;
	535	80.631	28.002	28.002	0	1.05783	108.7	1	80.631	80.631	0	0	0	0	0	0	0	0	0	0	0	107.8909	0.0000	1.6074	0.0000;
	549	1.4	0.7	0.7	0	1.0394	1.7	1	1.4	1.4	0	0	0	0	0	0	0	0	0	0	0	110.3849	0.0000	2.7098	0.0000;
	557	25.724	5.052	5.052	0	1.04037	34.4	1	25.724	25.724	0	0	0	0	0	0	0	0	0	0	0	109.7380	0.0000	2.7262	0.0000;
	557	21.184	5.052	5.052	0	1.04037	28.5	1	21.184	21.184	0	0	0	0	0	0	0	0	0	0	0	109.7380	0.0000	2.7262	0.0000;
	557	19.671	5	5	0	1.04037	26.5	1	19.671	19.671	0	0	0	0	0	0	0	0	0	0	0	109.7380	0.0000	2.7262	0.0000;
	557	22.697	5.052	5.052	0	1.04037	30.4	1	22.697	22.697	0	0	0	0	0	0	0	0	0	0	0	109.7380	0.0000	2.7262	0.0000;
	557	25.724	5.052	5.052	0	1.04037	34.4	1	25.724	25.724	0	0	0	0	0	0	0	0	0	0	0	109.7380	0.0000	2.7262	0.0000;
	558	31.032	5.064	5.064	0	1.03685	34.4	1	31.032	31.032	0	0	0	0	0	0	0	0	0	0	0	109.7338	0.0000	2.7695	0.0000;
	558	31.032	5.064	5.064	0	1.03685	34.4	1	31.032	31.032	0	0	0	0	0	0	0	0	0	0	0	109.7338	0.0000	2.7695	0.0000;
	558	22.817	5	5	0	1.03685	26.5	1	22.817	22.817	0	0	0	0	0	0	0	0	0	0	0	109.7338	0.0000	2.7695	0.0000;
	558	30.119	5.064	5.064	0	1.03685	34.4	1	30.119	30.119	0	0	0	0	0	0	0	0	0	0	0	109.7338	0.0000	2.7695	0.0000;
	594	2.58	1.35	1.35	0	1.06495	4.5	1	2.58	2.58	0	0	0	0	0	0	0	0	0	0	0	107.2664	0.0000	0.0405	0.0000;
	601	5.05	2.24	2.24	0	1.06191	5.5	1	5.05	5.05	0	0	0	0	0	0	0	0	0	0	0	107.4639	0.0000	0.1573	0.0000;
	622	110	5.34319	30	0	1.0778	114	1	110	110	0	0	0	0	0	0	0	0	0	0	0	104.0950	0.0000	0.0000	0.0000;
	622	0	0	30	0	1.0778	65.3	0	0	0	0	0	0	0	0	0	0	0	0	0	0	0.0000	0.0000	0.0000	0.0000;
	626	2.8	0	1.12	0	1.07287	3	1	2.8	2.8	0	0	0	0	0	0	0	0	0	0	0	104.7709	0.0000	0.0000	0.0510;
	630	5.61	1.79205	3.14	0	1.06945	6.4	1	5.61	5.61	0	0	0	0	0	0	0	0	0	0	0	107.4721	0.0000	0.0013	0.0000;
	631	6.73	1.9289	3.14	0	1.06942	7.4	1	6.73	6.73	0	0	0	0	0	0	0	0	0	0	0	107.4263	0.0000	0.0001	0.0000;
	655	1.23	0.45	0.45	0	1.03169	1.3	1	1.23	1.23	0	0	0	0	0	0	0	0	0	0	0	108.3971	0.0000	0.5878	0.0000;
	660	135	44.7218	120	-20	1.08206	255	1	225	135	0	0	0	0	0	0	0	0	0	0	0	0.0000	0.2973	0.0003	0.0000;
	661	135	38.2967	120	-20	1.08182	255	1	225	135	0	0	0	0	0	0	0	0	0	0	0	0.0000	0.2933	0.0000	0.0000;
	667	1.91	1.01	1.01	0	1.03727	2.2	1	1.91	1.91	0	0	0	0	0	0	0	0	0	0	0	107.3682	0.0000	0.3096	0.0000;
	671	9.53	0	3.36	0	1.06812	10.1	1	9.53	9.53	0	0	0	0	0	0	0	0	0	0	0	107.1164	0.0000	0.0000	0.1078;
	673	3.36	1.12	1.12	0	1.06495	4.4	1	3.36	3.36	0	0	0	0	0	0	0	0	0	0	0	103.6981	0.0000	0.0168	0.0000;
	681	190	0	30	0	1.08024	192.4	1	190	190	0	0	0	0	0	0	0	0	0	0	0	103.8516	0.0000	0.0000	0.0759;
	681	24.998	0	30	0	1.08024	77.5	1	24.998	24.998	0	0	0	0	0	0	0	0	0	0	0	103.8516	0.0000	0.0000	0.0759;
	687	11.21	0	5.61	0	1.07512	12.5	1	11.21	11.21	0	0	0	0	0	0	0	0	0	0	0	104.6035	0.0000	0.0000	0.0758;
	699	6.73	0	3.36	0	1.0746	7.5	1	6.73	6.73	0	0	0	0	0	0	0	0	0	0	0	104.9331	0.0000	0.0000	0.0030;
	702	1.12	0.400483	1.12	0	1.0721	1.6	1	1.12	1.12	0	0	0	0	0	0	0	0	0	0	0	103.9180	0.0000	0.0016	0.0000;
	712	10	4	4	0	1.07103	10.8	1	10	10	0	0	0	0	0	0	0	0	0	0	0	103.2569	0.0000	0.2418	0.0000;
	718	1.57	1.12	1.12	0	1.03111	1.9	1	1.57	1.57	0	0	0	0	0	0	0	0	0	0	0	108.4955	0.0000	0.6479	0.0000;
	722	2.8	1.12	1.12	0	1.06069	3	1	2.8	2.8	0	0	0	0	0	0	0	0	0	0	0	107.3366	0.0000	0.1394	0.0000;
	731	1.68	0.56	0.56	0	1.06199	4.3	1	1.68	1.68	0	0	0	0	0	0	0	0	0	0	0	105.0460	0.0000	0.1633	0.0000;
	736	130	-1.98744	120	-20	1.08182	255	1	225	130	0	0	0	0	0	0	0	0	0	0	0	0.0000	3.7628	0.0000	0.0000;
	740	2.24	0	0	0	1.06599	4.3	1	2.24	2.24	0	0	0	0	0	0	0	0	0	0	0	104.0360	0.0000	0.1510	0.0000;
	747	5.83	0.996481	3.36	0	1.04853	6.7	1	5.83	5.83	0	0	0	0	0	0	0	0	0	0	0	108.3433	0.0000	0.0000	0.0000;
	759	90	0	30	0	1.0699	105.2	1	90	90	0	0	0	0	0	0	0	0	0	0	0	103.0227	0.0000	0.0000	0.0969;
	760	0	0	0	0	1.06824	1.3	0	0	0	0	0	0	0	0	0	0	0	0	0	0	0.0000	0.0000	0.0000	0.0000;
	778	12.34	5.04875	30	0	1.05918	32.4	1	12.34	12.34	0	0	0	0	0	0	0	0	0	0	0	104.9867	0.0000	0.0000	0.0000;
	780	1.68	0.9	0.9	0	1.07776	1.9	1	1.68	1.68	0	0	0	0	0	0	0	0	0	0	0	104.0981	0.0000	0.0000	0.0003;
	783	6	0	3	0	1.07336	6.7	1	6	6	0	0	0	0	0	0	0	0	0	0	0	105.0189	0.0000	0.0000	0.0445;
	788	2	1	1	0	1.04756	95.9	1	2	2	0	0	0	0	0	0	0	0	0	0	0	106.0440	0.0000	0.0268	0.0000;
	792	68	2.71865	23	0	1.05369	71.8	1	68	0	0	0	0	0	0	0	0	0	0	0	0	104.9367	0.0000	0.0000	0.0000;
	792	0	0	23	0	1.05369	71.8	0	68	0	0	0	0	0	0	0	0	0	0	0	0	0.0000	0.0000	0.0000	0.0000;
	792	0	0	11	0	1.05369	23.7	0	21	0	0	0	0	0	0	0	0	0	0	0	0	0.0000	0.0000	0.0000	0.0000;
	792	0	0	10	0	1.05369	23.3	0	21	0	0	0	0	0	0	0	0	0	0	0	0	0.0000	0.0000	0.0000	0.0000;
	803	0	-0.002	10	-0.002	1.08195	55.9	1	55	0	0	0	0	0	0	0	0	0	0	0	0	0.0000	7.2443	0.0000	0.1110;
	804	0	10	10	0	1.07278	120.4	1	120	0	0	0	0	0	0	0	0	0	0	0	0	0.0000	4.6029	0.0329	0.0000;
	809	0	0	0	0	1.07004	3.3	0	0	0	0	0	0	0	0	0	0	0	0	0	0	0.0000	0.0000	0.0000	0.0000;
	815	3.36	0	2.02	0	1.07164	3.9	1	3.36	3.36	0	0	0	0	0	0	0	0	0	0	0	107.1130	0.0000	0.0000	0.0595;
	834	1.12	0	0	0	1.05238	1.5	1	1.12	1.12	0	0	0	0	0	0	0	0	0	0	0	105.9599	0.0000	0.3467	0.0000;
	840	30	8.1	8.1	0	1.05932	51.6	1	30	30	0	0	0	0	0	0	0	0	0	0	0	103.6599	0.0000	0.2636	0.0000;
	840	30	8.1	8.1	0	1.05932	51.6	1	30	30	0	0	0	0	0	0	0	0	0	0	0	103.6599	0.0000	0.2636	0.0000;
	844	1.9	0.45	0.45	0	1.07659	3.5	1	1.9	1.9	0	0	0	0	0	0	0	0	0	0	0	99.4756	0.0000	0.1390	0.0000;
	848	3.01	0	0	0	1.05907	5.6	1	3.01	3.01	0	0	0	0	0	0	0	0	0	0	0	101.8848	0.0000	0.7220	0.0000;
	854	7	1.35	1.35	0	1.06201	14.6	1	7	7	0	0	0	0	0	0	0	0	0	0	0	101.2757	0.0000	0.8021	0.0000;
	873	68	15.6845	41.2	0	1.08182	87.7	1	68	68	0	0	0	0	0	0	0	0	0	0	0	98.2406	0.0000	0.0000	0.0000;
	876	0	0	0	0	1.0397	1.9	0	0	0	0	0	0	0	0	0	0	0	0	0	0	0.0000	0.0000	0.0000	0.0000;
	896	0	0	45	-10	1.06882	65.8	0	0	0	0	0	0	0	0	0	0	0	0	0	0	0.0000	0.0000	0.0000	0.0000;
	896	0	0	45	-10	1.06882	71.1	0	0	0	0	0	0	0	0	0	0	0	0	0	0	0.0000	0.0000	0.0000	0.0000;
	896	55	45	45	-10	1.06882	71.1	1	55	55	0	0	0	0	0	0	0	0	0	0	0	100.5192	0.0000	0.1987	0.0000;
	902	0.111	0	0	0	1.0143	0.3	1	0.111	0.111	0	0	0	0	0	0	0	0	0	0	0	109.5441	0.0000	1.2633	0.0000;
	903	0	0	0	0	1.01428	2.5	0	0	0	0	0	0	0	0	0	0	0	0	0	0	0.0000	0.0000	0.0000	0.0000;
	952	2.6	0.6	0.6	0	1.06079	3	1	2.6	2.6	0	0	0	0	0	0	0	0	0	0	0	103.3417	0.0000	0.1705	0.0000;
	958	0	0	0	0	1.04967	2.5	0	0	0	0	0	0	0	0	0	0	0	0	0	0	0.0000	0.0000	0.0000	0.0000;
	972	27	5.21474	32	5	1.08182	54	1	27	27	0	0	0	0	0	0	0	0	0	0	0	98.6627	0.0000	0.0000	0.0000;
	972	0	0	32	5	1.08182	42.5	0	0	0	0	0	0	0	0	0	0	0	0	0	0	0.0000	0.0000	0.0000	0.0000;
	972	3	1.21277	7	1	1.08182	11.4	1	3	3	0	0	0	0	0	0	0	0	0	0	0	98.6627	0.0000	0.0000	0.0000;
	972	80	37.7001	110	-40	1.08182	162.2	1	80	80	0	0	0	0	0	0	0	0	0	0	0	98.6627	0.0000	0.0000	0.0000;
	973	80	34.0164	110	-40	1.081	162.2	1	80	80	0	0	0	0	0	0	0	0	0	0	0	98.8641	0.0000	0.0000	0.0000;
...
];

%% branch data
%	fbus	tbus	r	x	b	rateA	rateB	rateC	ratio	angle	status	angmin	angmax	Pf	Qf	Pt	Qt	mu_Sf	mu_St	mu_angmin	mu_angmax
mpc.branch = [
	7	8	0.00064	0.0305	0	400	400	400	1.0435	-0.6	1	-360	360	-252.5909	-29.0796	252.9920	48.1971	0.0000	0.0000	0.0000	0.0000;
	26	28	0.00036	0.02519	0	500	500	500	1.0565	0	1	-360	360	-18.8306	19.5216	18.8330	-19.3537	0.0000	0.0000	0.0000	0.0000;
	27	29	0.00036	0.02519	0	500	500	500	1.0566	0	1	-360	360	111.9773	18.2096	-111.9353	-15.2717	0.0000	0.0000	0.0000	0.0000;
	40	42	0.00034	0.02097	0	500	500	500	1.068	0	1	-360	360	30.7556	-48.6741	-30.7451	49.3246	0.0000	0.0000	0.0000	0.0000;
	43	46	0.00034	0.02097	0	500	500	500	1.0569	0	1	-360	360	72.0962	7.4679	-72.0800	-6.4692	0.0000	0.0000	0.0000	0.0000;
	55	57	0.00081	0.03	0	400	400	400	1.0765	0	1	-360	360	45.4647	-74.1132	-45.4064	76.2752	0.0000	0.0000	0.0000	0.0000;
	90	92	0.00075	0.02444	-0.00832	330	330	330	1.0631	0	1	-360	360	-126.3921	-22.6948	126.5069	27.3378	0.0000	0.0000	0.0000	0.0000;
	91	93	0.00075	0.02469	-0.008	330	330	330	1.0632	0	1	-360	360	-125.3894	-23.1779	125.5026	27.7726	0.0000	0.0000	0.0000	0.0000;
	125	128	0.0005	0.02875	-0.016	400	400	400	1.0639	0	1	-360	360	77.2668	-3.0864	-77.2392	6.4101	0.0000	0.0000	0.0000	0.0000;
	149	150	0.00064	0.0305	0	400	400	400	1.0826	0	1	-360	360	-211.9088	-27.6683	212.1869	40.9200	0.0000	0.0000	0.0000	0.0000;
	155	158	0.000232	0.023	0	500	500	500	1.089	0	1	-360	360	-29.5722	-69.1038	29.5848	70.3546	0.0000	0.0000	0.0000	0.0000;
	156	159	0.000232	0.023	0	500	500	500	1.0893	0	1	-360	360	-117.6252	-68.2436	117.6664	72.3398	0.0000	0.0000	0.0000	0.0000;
	170	172	0.00035	0.02375	0	500	500	500	1.1049	0	1	-360	360	74.0521	-93.5082	-74.0006	97.0033	0.0000	0.0000	0.0000	0.0000;
	183	184	0.00059	0.03093	0	400	400	400	1.091	0	1	-360	360	-104.3332	-58.4802	104.4147	62.7545	0.0000	0.0000	0.0000	0.0000;
	190	192	0.0004	0.03	0	500	500	500	1.1321	0	1	-360	360	-149.4449	-135.1382	149.6261	148.7293	0.0000	0.0000	0.0000	0.0000;
	2735	158	0.00031	0.00338	0.0992	1386	1386	1386	0	0	1	-360	360	89.1770	0.5655	-89.1539	-10.9442	0.0000	0.0000	0.0000	0.0000;
	2735	159	0.00031	0.00338	0.0992	1386	1386	1386	0	0	1	-360	360	86.0970	-0.5655	-86.0755	-9.8311	0.0000	0.0000	0.0000	0.0000;
	2736	68	0.014341	0.083531	0.126034	415	415	415	0	0	1	-360	360	125.0000	0.8364	-123.1472	-5.1002	0.0000	0.0000	0.0000	0.0000;
	2734	76	0.01219	0.070659	0.117418	412	412	412	0	0	1	-360	360	-134.6018	3.5748	136.4489	-7.1461	0.0000	0.0000	0.0000	0.0000;
	2734	105	0.011781	0.07087	0.116838	412	412	412	0	0	1	-360	360	-136.0362	0.8112	137.8542	-4.1013	0.0000	0.0000	0.0000	0.0000;
	2739	200	9e-06	9.4e-05	0	924	924	924	0	0	1	-360	360	400.0000	0.0000	-399.9861	0.1391	0.0000	0.0000	0.0000	0.0000;
	128	2732	0.0015	0.01469	0.40384	1386	1386	1386	0	0	0	-360	360	0.0000	0.0000	0.0000	0.0000	0.0000	0.0000	0.0000	0.0000;
	127	2733	0.001419	0.014675	0.4896	1386	1386	1386	0	0	1	-360	360	639.4238	16.0375	-634.0640	-13.2720	0.0000	0.0000	0.0000	0.0000;
	2737	148	0.001651	0.015909	0.046948	373	373	373	0	0	1	-360	360	-39.4502	-14.3755	39.4729	8.8216	0.0000	0.0000	0.0000	0.0000;
	2737	149	0.001651	0.015909	0.046948	373	373	373	0	0	1	-360	360	-40.1478	-14.2705	40.1712	8.7236	0.0000	0.0000	0.0000	0.0000;
	2738	48	0.00188	0.02287	0.6432	831	831	831	0	0	1	-360	360	-232.9557	-79.2948	233.9754	23.8074	0.0000	0.0000	0.0000	0.0000;
	2738	49	0.00188	0.02287	0.6432	831	831	831	0	0	1	-360	360	-232.2283	-79.2522	233.2419	23.6915	0.0000	0.0000	0.0000	0.0000;
	82	2732	0.003519	0.039313	1.0336	1621	1621	1621	0	0	1	-360	360	311.9662	-16.5606	-308.7700	-58.2530	0.0000	0.0000	0.0000	0.0000;
	43	23	0.01345	0.081141	0.141134	339	339	339	0	0	1	-360	360	201.4527	60.6344	-196.4976	-47.1311	0.0000	0.0000	0.0000	0.0000;
	26	90	0.009091	0.062401	0.111417	457	457	457	0	0	1	-360	360	124.3978	-10.9606	-123.2548	5.1485	0.0000	0.0000	0.0000	0.0000;
	27	91	0.00868	0.06405	0.096994	457	457	457	0	0	1	-360	360	178.5607	-11.9243	-176.3121	16.6276	0.0000	0.0000	0.0000	0.0000;
	146	30	0.016961	0.123659	0.196988	373	373	373	0	0	1	-360	360	86.2302	34.5901	-84.9053	-47.8810	0.0000	0.0000	0.0000	0.0000;
	135	34	0.00512	0.02618	0.029621	335	335	335	0	0	1	-360	360	-80.5277	88.3333	81.1350	-88.8199	0.0000	0.0000	0.0000	0.0000;
	134	20	0.01068	0.061961	0.094961	415	415	415	0	0	1	-360	360	-183.3544	71.6296	186.7888	-63.1947	0.0000	0.0000	0.0000	0.0000;
	165	21	0.014651	0.105891	0.170852	373	373	373	0	0	1	-360	360	112.0246	30.8897	-110.3284	-38.7641	0.0000	0.0000	0.0000	0.0000;
	41	109	0.01488	0.08161	0.114805	347	347	347	0	0	1	-360	360	-105.6520	17.2108	107.0862	-23.3303	0.0000	0.0000	0.0000	0.0000;
	40	91	0.011159	0.07231	0.103673	362	362	362	0	0	1	-360	360	-156.1834	25.1157	158.5069	-22.7003	0.0000	0.0000	0.0000	0.0000;
	179	83	0.008616	0.077645	0.122239	373	373	373	0	0	1	-360	360	-148.1283	-9.8099	149.7201	9.3834	0.0000	0.0000	0.0000	0.0000;
	203	166	0.01176	0.068289	0.102802	362	362	362	0	0	1	-360	360	-249.2762	-37.0192	256.0052	64.0894	0.0000	0.0000	0.0000	0.0000;
	194	166	0.016818	0.089091	0.129935	400	400	400	0	0	1	-360	360	-171.5262	-27.1634	176.0158	35.6844	0.0000	0.0000	0.0000	0.0000;
	193	165	0.013843	0.087025	0.134842	427	427	427	0	0	1	-360	360	-176.3181	-33.0367	180.2521	41.9314	0.0000	0.0000	0.0000	0.0000;
	207	168	0.01676	0.097169	0.148685	274	274	274	0	0	1	-360	360	20.7130	-13.1600	-20.6484	-3.8200	0.0000	0.0000	0.0000	0.0000;
	43	12	0.01269	0.074979	0.130196	377	377	377	0	0	1	-360	360	220.5637	71.0314	-214.9094	-52.6963	0.0000	0.0000	0.0000	0.0000;
	198	18	0.014091	0.10413	0.15972	373	373	373	0	0	1	-360	360	-89.9084	-36.4634	91.0101	25.8253	0.0000	0.0000	0.0000	0.0000;
	100	55	0.003719	0.0438	0.100962	457	457	457	0	0	1	-360	360	-14.1560	-16.2162	14.1653	4.1023	0.0000	0.0000	0.0000	0.0000;
	163	82	0.00194	0.02056	0.51584	1316	1316	1316	0	0	1	-360	360	-516.5911	-45.0415	521.5252	42.1547	0.0000	0.0000	0.0000	0.0000;
	45	9	0.0015	0.01506	0.4032	1386	1386	1386	0	0	1	-360	360	384.0984	88.0683	-381.9202	-109.7012	0.0000	0.0000	0.0000	0.0000;
	185	151	0.00294	0.03463	0.9216	693	693	693	0	0	1	-360	360	27.4490	-53.0282	-27.4280	-45.7408	0.0000	0.0000	0.0000	0.0000;
	121	57	0.00169	0.01994	0.50624	831	831	831	0	0	1	-360	360	-17.1041	-10.3586	17.1133	-45.0451	0.0000	0.0000	0.0000	0.0000;
	29	93	0.00137	0.01625	0.41184	1386	1386	1386	0	0	1	-360	360	267.3184	-36.5057	-266.4214	2.0994	0.0000	0.0000	0.0000	0.0000;
	28	123	0.00231	0.02769	0.70144	1386	1386	1386	0	0	1	-360	360	422.3525	-65.7273	-418.5710	34.0134	0.0000	0.0000	0.0000	0.0000;
	25	192	0.00207	0.02474	0.664	831	831	831	0	0	1	-360	360	434.4905	51.4777	-430.5531	-71.2709	0.0000	0.0000	0.0000	0.0000;
	120	64	0.0015	0.01788	0.4512	831	831	831	0	0	1	-360	360	148.6316	-24.9220	-148.3302	-21.0177	0.0000	0.0000	0.0000	0.0000;
	122	65	0.00469	0.05544	1.4048	831	831	831	0	0	1	-360	360	194.1085	-78.3397	-192.5057	-57.1242	0.0000	0.0000	0.0000	0.0000;
	82	31	0.00331	0.03425	0.85888	1150	1150	1150	0	0	1	-360	360	-122.9534	-39.4862	123.4145	-49.4637	0.0000	0.0000	0.0000	0.0000;
	92	28	0.00219	0.02369	0.59584	1316	1316	1316	0	0	1	-360	360	-181.8529	-14.1539	182.5221	-43.7760	0.0000	0.0000	0.0000	0.0000;
	11	4	0.01674	0.09711	0.144232	461	461	461	0	0	1	-360	360	-228.5533	7.4047	236.6613	23.3287	0.0000	0.0000	0.0000	0.0000;
	30	12	0.0057	0.0407	0.06021	373	373	373	0	0	1	-360	360	-36.4118	21.0777	36.5114	-26.9354	0.0000	0.0000	0.0000	0.0000;
	33	4	0.004419	0.032229	0.049852	392	392	392	0	0	1	-360	360	210.6975	-2.3704	-209.0521	8.4638	0.0000	0.0000	0.0000	0.0000;
	17	7	0.014591	0.11219	0.165528	427	427	427	0	0	1	-360	360	-66.3982	45.8214	67.2986	-58.3004	0.0000	0.0000	0.0000	0.0000;
	22	10	0.01211	0.087419	0.140166	373	373	373	0	0	1	-360	360	-30.1542	20.5302	30.3390	-34.6711	0.0000	0.0000	0.0000	0.0000;
	26	5	0.009773	0.050516	0.088959	377	377	377	0	0	1	-360	360	246.2864	14.0007	-241.4451	0.3071	0.0000	0.0000	0.0000	0.0000;
	17	3	0.01068	0.07895	0.122597	274	274	274	0	0	1	-360	360	137.9583	36.5162	-136.1247	-37.3934	0.0000	0.0000	0.0000	0.0000;
	26	19	0.0057	0.039521	0.075533	480	480	480	0	0	1	-360	360	254.2276	25.3469	-251.1958	-13.4665	0.0000	0.0000	0.0000	0.0000;
	27	20	0.0057	0.039521	0.075533	480	480	480	0	0	1	-360	360	345.2337	21.0123	-339.6890	8.2893	0.0000	0.0000	0.0000	0.0000;
	10	6	0.00525	0.03988	0.061952	373	373	373	0	0	1	-360	360	-22.6774	-49.1176	22.8038	43.2437	0.0000	0.0000	0.0000	0.0000;
	32	10	0.00093	0.00651	0.011132	373	373	373	0	0	1	-360	360	-103.6693	-22.4553	103.7661	21.9294	0.0000	0.0000	0.0000	0.0000;
	23	11	0.00205	0.01326	0.022429	415	415	415	0	0	1	-360	360	17.1317	22.7643	-17.1154	-25.0962	0.0000	0.0000	0.0000	0.0000;
	34	5	0.007831	0.043	0.04962	335	335	335	0	0	1	-360	360	-155.0004	49.2120	156.7550	-45.4597	0.0000	0.0000	0.0000	0.0000;
	19	4	0.00293	0.01599	0.024781	362	362	362	0	0	1	-360	360	150.1180	5.8152	-149.5608	-5.7051	0.0000	0.0000	0.0000	0.0000;
	26	1	0.00155	0.01169	0.018198	747	747	747	0	0	1	-360	360	77.1807	80.5910	-77.0218	-81.6151	0.0000	0.0000	0.0000	0.0000;
	27	2	0.00155	0.01169	0.018198	747	747	747	0	0	1	-360	360	56.8477	69.6332	-56.7440	-71.0772	0.0000	0.0000	0.0000	0.0000;
	27	33	0.003841	0.028531	0.045883	392	392	392	0	0	1	-360	360	321.8876	35.9266	-318.6108	-17.1481	0.0000	0.0000	0.0000	0.0000;
	24	33	2e-06	2.1e-05	0	392	392	392	0	0	1	-360	360	-107.9131	-19.5164	107.9133	19.5185	0.0000	0.0000	0.0000	0.0000;
	25	9	0.00298	0.03417	0.93504	831	831	831	0	0	1	-360	360	-18.9121	-85.9218	18.9636	-11.1698	0.0000	0.0000	0.0000	0.0000;
	28	25	0.00358	0.04262	1.0944	1386	1386	1386	0	0	1	-360	360	605.9794	37.1152	-593.6575	-6.7220	0.0000	0.0000	0.0000	0.0000;
	14	29	0.00336	0.03977	1.02163	1316	1316	1316	0	0	1	-360	360	-546.4254	0.7984	556.0246	2.9993	0.0000	0.0000	0.0000	0.0000;
	8	15	0.00299	0.03675	0.9184	1358	1358	1358	0	0	1	-360	360	152.3571	-54.3937	-151.7003	-34.6324	0.0000	0.0000	0.0000	0.0000;
	8	14	0.00112	0.01329	0.341248	1358	1358	1358	0	0	1	-360	360	-251.2724	16.9381	251.9536	-44.9213	0.0000	0.0000	0.0000	0.0000;
	31	29	0.00063	0.00749	0.392256	1358	1358	1358	0	0	1	-360	360	-364.6549	9.2122	365.4264	-42.9520	0.0000	0.0000	0.0000	0.0000;
	63	59	0.010479	0.060969	0.092047	316	316	316	0	0	1	-360	360	9.0239	-3.7460	-9.0166	-7.4032	0.0000	0.0000	0.0000	0.0000;
	61	56	0.00882	0.065641	0.100662	274	274	274	0	0	1	-360	360	-23.5018	-6.1259	23.5420	-5.7886	0.0000	0.0000	0.0000	0.0000;
	67	35	0.011219	0.065581	0.098349	274	274	274	0	0	1	-360	360	22.7219	-6.3346	-22.6732	-5.0758	0.0000	0.0000	0.0000	0.0000;
	51	35	0.01163	0.07031	0.105802	377	377	377	0	0	1	-360	360	-49.5574	-6.9814	49.8009	-4.0325	0.0000	0.0000	0.0000	0.0000;
	59	43	0.00545	0.040211	0.066986	446	446	446	0	0	1	-360	360	-80.2283	-14.8320	80.5225	8.8107	0.0000	0.0000	0.0000	0.0000;
	60	44	0.00545	0.040211	0.066986	446	446	446	0	0	1	-360	360	-81.6587	-14.5907	81.9631	8.6443	0.0000	0.0000	0.0000	0.0000;
	60	35	0.00837	0.04868	0.073481	419	419	419	0	0	1	-360	360	81.8856	10.4659	-81.4078	-16.5080	0.0000	0.0000	0.0000	0.0000;
	68	52	0.003159	0.02076	0.03146	415	415	415	0	0	1	-360	360	49.6625	-6.8965	-49.5955	3.6445	0.0000	0.0000	0.0000	0.0000;
	52	39	0.006979	0.051961	0.079666	373	373	373	0	0	1	-360	360	46.7557	4.3260	-46.6208	-12.6078	0.0000	0.0000	0.0000	0.0000;
	37	56	0.00374	0.027831	0.042689	274	274	274	0	0	1	-360	360	-128.2840	-5.0956	128.7956	3.7396	0.0000	0.0000	0.0000	0.0000;
	38	36	0.00769	0.057271	0.087894	373	373	373	0	0	1	-360	360	63.9300	-4.2485	-63.6688	-4.3402	0.0000	0.0000	0.0000	0.0000;
	55	38	0.00556	0.04145	0.063598	427	427	427	0	0	1	-360	360	86.5757	0.6529	-86.2320	-5.7831	0.0000	0.0000	0.0000	0.0000;
	67	37	0.004521	0.03368	0.051691	392	392	392	0	0	1	-360	360	-83.3760	-9.0200	83.6412	4.8061	0.0000	0.0000	0.0000	0.0000;
	67	66	0.00151	0.008781	0.013165	377	377	377	0	0	1	-360	360	60.6541	15.3546	-60.6042	-16.6294	0.0000	0.0000	0.0000	0.0000;
	62	43	0.00574	0.042831	0.065727	446	446	446	0	0	1	-360	360	-62.4361	-11.4540	62.6224	4.7928	0.0000	0.0000	0.0000	0.0000;
	63	44	0.00707	0.045409	0.069309	347	347	347	0	0	1	-360	360	-60.2530	-9.7435	60.4656	2.6181	0.0000	0.0000	0.0000	0.0000;
	62	40	0.01213	0.062151	0.093712	347	347	347	0	0	1	-360	360	-54.8058	4.9554	55.1163	-14.7831	0.0000	0.0000	0.0000	0.0000;
	61	41	0.002479	0.017979	0.027588	373	373	373	0	0	1	-360	360	-89.7564	-10.2140	89.9228	8.0687	0.0000	0.0000	0.0000	0.0000;
	47	40	0.002401	0.01494	0.022525	377	377	377	0	0	1	-360	360	-85.8907	-14.8642	86.0406	13.0606	0.0000	0.0000	0.0000	0.0000;
	50	46	0.00167	0.0189	0.54176	1358	1358	1358	0	0	1	-360	360	-113.0094	-11.3118	113.2080	-46.0928	0.0000	0.0000	0.0000	0.0000;
	58	54	0.00109	0.01277	0.34176	1358	1358	1358	0	0	1	-360	360	152.4410	-16.6830	-152.2093	-17.9116	0.0000	0.0000	0.0000	0.0000;
	42	58	0.002259	0.026439	0.70784	1358	1358	1358	0	0	1	-360	360	30.7451	-49.3246	-30.7231	-27.6591	0.0000	0.0000	0.0000	0.0000;
	64	58	0.00094	0.01097	0.29376	1552	1552	1552	0	0	1	-360	360	-272.4882	22.3376	273.1377	-46.9138	0.0000	0.0000	0.0000	0.0000;
	48	65	0.00113	0.01406	0.37488	831	831	831	0	0	1	-360	360	-503.1827	-48.2593	505.8604	40.9446	0.0000	0.0000	0.0000	0.0000;
	53	45	0.00176	0.02144	0.57344	1358	1358	1358	0	0	1	-360	360	-54.7199	-49.0466	54.7734	-13.0812	0.0000	0.0000	0.0000	0.0000;
	96	125	0.004876	0.033616	0.059609	446	446	446	0	0	1	-360	360	-102.0465	2.4568	102.4637	-6.8827	0.0000	0.0000	0.0000	0.0000;
	75	106	0.01093	0.059194	0.08439	290	290	290	0	0	1	-360	360	-43.8408	-8.3992	44.0150	-0.9525	0.0000	0.0000	0.0000	0.0000;
	106	94	0.001942	0.013926	0.022845	446	446	446	0	0	1	-360	360	10.9155	-4.2512	-10.9135	1.4623	0.0000	0.0000	0.0000	0.0000;
	79	85	0.004318	0.029752	0.05264	373	373	373	0	0	1	-360	360	3.4641	5.8470	-3.4608	-12.2845	0.0000	0.0000	0.0000	0.0000;
	131	130	0.000661	0.004959	0.007579	419	419	419	0	0	1	-360	360	136.0801	32.1682	-135.9736	-32.2891	0.0000	0.0000	0.0000	0.0000;
	107	131	0.005372	0.040393	0.060055	419	419	419	0	0	1	-360	360	32.2537	5.7722	-32.2042	-12.7347	0.0000	0.0000	0.0000	0.0000;
	91	131	0.000826	0.005248	0.008683	305	305	305	0	0	1	-360	360	103.9516	18.8573	-103.8759	-19.4334	0.0000	0.0000	0.0000	0.0000;
	100	119	0.015888	0.087603	0.116818	347	347	347	0	0	1	-360	360	-94.2742	1.0991	95.4540	-8.8053	0.0000	0.0000	0.0000	0.0000;
	81	113	0.002169	0.014587	0.025749	316	316	316	0	0	1	-360	360	-13.5853	-7.2757	13.5892	4.1920	0.0000	0.0000	0.0000	0.0000;
	116	101	0.017727	0.116777	0.163611	290	290	290	0	0	1	-360	360	96.1159	-10.9794	-94.7812	-0.1300	0.0000	0.0000	0.0000	0.0000;
	126	74	0.00593	0.04093	0.072145	446	446	446	0	0	1	-360	360	43.9727	8.2375	-43.8716	-16.3459	0.0000	0.0000	0.0000	0.0000;
	108	90	0.003905	0.028471	0.044983	427	427	427	0	0	1	-360	360	-91.9430	6.9941	92.2172	-10.4760	0.0000	0.0000	0.0000	0.0000;
	118	79	0.008161	0.042417	0.061197	385	385	385	0	0	1	-360	360	-88.8462	11.6246	89.3867	-16.3347	0.0000	0.0000	0.0000	0.0000;
	119	78	0.008161	0.042417	0.061197	385	385	385	0	0	1	-360	360	-98.3786	11.3403	99.0373	-15.4422	0.0000	0.0000	0.0000	0.0000;
	79	76	0.005186	0.038388	0.058748	492	492	492	0	0	1	-360	360	-26.5940	1.8693	26.6251	-8.8619	0.0000	0.0000	0.0000	0.0000;
	78	73	0.002128	0.014029	0.022603	335	335	335	0	0	1	-360	360	95.9560	16.5011	-95.7915	-18.1910	0.0000	0.0000	0.0000	0.0000;
	114	78	0.004628	0.027748	0.046115	362	362	362	0	0	1	-360	360	-104.0558	-25.5243	104.4900	22.4988	0.0000	0.0000	0.0000	0.0000;
	103	72	0.011219	0.070744	0.115705	290	290	290	0	0	1	-360	360	-4.7584	-9.9173	4.7613	-4.1862	0.0000	0.0000	0.0000	0.0000;
	110	117	0.006012	0.041467	0.073636	427	427	427	0	0	1	-360	360	-102.8338	0.9709	103.3574	-6.3618	0.0000	0.0000	0.0000	0.0000;
	91	69	0.002066	0.012789	0.020551	316	316	316	0	0	1	-360	360	96.7235	16.3832	-96.5597	-17.8672	0.0000	0.0000	0.0000	0.0000;
	86	90	0.001364	0.009731	0.016243	457	457	457	0	0	1	-360	360	-99.8310	-23.1625	99.9486	22.0267	0.0000	0.0000	0.0000	0.0000;
	129	87	0.000579	0.004112	0.007008	446	446	446	0	0	1	-360	360	-61.9184	-11.5195	61.9373	10.8048	0.0000	0.0000	0.0000	0.0000;
	132	76	0.000847	0.00624	0.009544	457	457	457	0	0	1	-360	360	247.0000	-5.7443	-246.5804	7.6609	0.0000	0.0000	0.0000	0.0000;
	133	77	0.000847	0.00626	0.009477	457	457	457	0	0	1	-360	360	123.0000	10.4325	-122.8951	-10.8236	0.0000	0.0000	0.0000	0.0000;
	102	77	0.001591	0.011116	0.019128	492	492	492	0	0	1	-360	360	-205.8434	-17.6074	206.4004	19.1588	0.0000	0.0000	0.0000	0.0000;
	125	104	0.003141	0.021591	0.038391	446	446	446	0	0	1	-360	360	-57.4790	-2.3434	57.5635	-1.7988	0.0000	0.0000	0.0000	0.0000;
	126	111	0.004545	0.03157	0.055312	373	373	373	0	0	1	-360	360	86.3189	31.5481	-85.9979	-36.0321	0.0000	0.0000	0.0000	0.0000;
	104	84	0.001446	0.009917	0.017598	373	373	373	0	0	1	-360	360	123.1118	20.3640	-122.9285	-21.2685	0.0000	0.0000	0.0000	0.0000;
	105	95	0.003822	0.026674	0.046154	373	373	373	0	0	1	-360	360	22.0191	2.8493	-22.0030	-8.4131	0.0000	0.0000	0.0000	0.0000;
	112	80	0.007769	0.041281	0.063907	316	316	316	0	0	1	-360	360	-3.2519	-12.3242	3.2572	4.6653	0.0000	0.0000	0.0000	0.0000;
	89	78	0.004463	0.030413	0.048671	290	290	290	0	0	1	-360	360	-12.8307	-22.8238	12.8511	16.9988	0.0000	0.0000	0.0000	0.0000;
	117	108	0.005888	0.035062	0.052349	290	290	290	0	0	1	-360	360	48.0704	3.0212	-47.9576	-8.7484	0.0000	0.0000	0.0000	0.0000;
	109	99	0.003161	0.023409	0.036165	373	373	373	0	0	1	-360	360	-44.1933	-5.6188	44.2443	1.5856	0.0000	0.0000	0.0000	0.0000;
	116	79	0.001839	0.012603	0.022399	373	373	373	0	0	1	-360	360	-81.4775	-1.1070	81.5770	-0.9632	0.0000	0.0000	0.0000	0.0000;
	107	88	0.001715	0.009607	0.014239	335	335	335	0	0	1	-360	360	72.1427	27.5623	-72.0587	-28.8326	0.0000	0.0000	0.0000	0.0000;
	98	79	0.003409	0.024421	0.039969	290	290	290	0	0	1	-360	360	-68.0358	-9.1221	68.1662	5.1558	0.0000	0.0000	0.0000	0.0000;
	117	78	0.001839	0.012603	0.02239	373	373	373	0	0	1	-360	360	-110.4825	-4.1874	110.6655	2.6887	0.0000	0.0000	0.0000	0.0000;
	83	97	0.005702	0.041488	0.066172	446	446	446	0	0	1	-360	360	-45.8217	11.2965	45.9301	-18.6153	0.0000	0.0000	0.0000	0.0000;
	124	118	0.004587	0.024628	0.036165	347	347	347	0	0	1	-360	360	-68.5588	-7.0415	68.7366	3.5735	0.0000	0.0000	0.0000	0.0000;
	124	110	0.002149	0.013327	0.022109	290	290	290	0	0	1	-360	360	-16.6871	4.0450	16.6926	-6.7046	0.0000	0.0000	0.0000	0.0000;
	100	71	0.000785	0.004876	0.00726	316	316	316	0	0	1	-360	360	8.3105	0.0605	-8.3100	-0.9330	0.0000	0.0000	0.0000	0.0000;
	101	70	0.000785	0.004876	0.007241	316	316	316	0	0	1	-360	360	7.1233	-0.8709	-7.1230	-0.0000	0.0000	0.0000	0.0000	0.0000;
	93	127	0.002413	0.027544	0.767968	831	831	831	0	0	1	-360	360	196.2646	-43.0577	-195.4145	-30.9594	0.0000	0.0000	0.0000	0.0000;
	82	127	0.002462	0.028525	0.7616	1621	1621	1621	0	0	1	-360	360	97.1337	-45.5795	-96.9200	-34.8022	0.0000	0.0000	0.0000	0.0000;
	122	115	0.000913	0.0104	0.289888	1358	1358	1358	0	0	1	-360	360	-30.8147	48.2123	30.8567	-79.5091	0.0000	0.0000	0.0000	0.0000;
	123	121	0.003119	0.035631	0.991072	831	831	831	0	0	1	-360	360	226.6870	-62.2278	-225.2318	-30.2750	0.0000	0.0000	0.0000	0.0000;
	115	128	0.000919	0.010512	0.292928	1358	1358	1358	0	0	1	-360	360	-146.9616	10.4551	147.1496	-40.1875	0.0000	0.0000	0.0000	0.0000;
	174	156	0.01545	0.073349	0.126614	461	461	461	0	0	1	-360	360	-271.5796	-15.6732	281.9727	50.2647	0.0000	0.0000	0.0000	0.0000;
	175	155	0.01545	0.073349	0.126614	461	461	461	0	0	1	-360	360	-298.8560	-4.5062	311.4292	49.4474	0.0000	0.0000	0.0000	0.0000;
	177	155	0.01457	0.07955	0.14007	362	362	362	0	0	1	-360	360	-144.7149	-6.6130	147.2991	3.8217	0.0000	0.0000	0.0000	0.0000;
	178	156	0.01457	0.07955	0.14007	362	362	362	0	0	1	-360	360	-117.0554	-14.1359	118.7500	6.4875	0.0000	0.0000	0.0000	0.0000;
	177	144	0.006031	0.04401	0.069793	373	373	373	0	0	1	-360	360	44.1712	-34.4889	-44.0244	27.2410	0.0000	0.0000	0.0000	0.0000;
	166	140	0.011031	0.08057	0.124127	446	446	446	0	0	1	-360	360	207.5601	1.6251	-203.6953	11.5426	0.0000	0.0000	0.0000	0.0000;
	137	155	0.005831	0.04231	0.070664	427	427	427	0	0	1	-360	360	-210.0478	-28.6450	212.2575	36.1573	0.0000	0.0000	0.0000	0.0000;
	171	174	0.01849	0.095599	0.159139	305	305	305	0	0	1	-360	360	-82.3342	54.2136	84.0302	-63.5676	0.0000	0.0000	0.0000	0.0000;
	152	175	0.010581	0.053	0.088475	415	415	415	0	0	1	-360	360	-127.0078	45.0452	128.7696	-46.0252	0.0000	0.0000	0.0000	0.0000;
	154	156	0.012521	0.091359	0.145394	457	457	457	0	0	1	-360	360	-271.5530	16.5666	279.6146	24.9036	0.0000	0.0000	0.0000	0.0000;
	136	137	0.00506	0.036539	0.063598	305	305	305	0	0	1	-360	360	-102.0405	-5.2726	102.4920	1.0685	0.0000	0.0000	0.0000	0.0000;
	148	143	0.01043	0.077891	0.122065	427	427	427	0	0	1	-360	360	-20.8371	12.5941	20.9081	-26.9413	0.0000	0.0000	0.0000	0.0000;
	153	181	0.007711	0.056961	0.088378	373	373	373	0	0	1	-360	360	-20.9553	53.9043	21.2172	-61.8982	0.0000	0.0000	0.0000	0.0000;
	171	147	0.018599	0.09638	0.140941	290	290	290	0	0	1	-360	360	-188.9181	16.9335	194.6438	-4.2560	0.0000	0.0000	0.0000	0.0000;
	176	170	0.00244	0.01318	0.021296	377	377	377	0	0	1	-360	360	-82.1290	1.1338	82.2690	-2.8875	0.0000	0.0000	0.0000	0.0000;
	170	140	0.00355	0.02593	0.041237	446	446	446	0	0	1	-360	360	-77.4368	-18.6535	77.6250	15.1322	0.0000	0.0000	0.0000	0.0000;
	171	168	0.01312	0.076219	0.116644	362	362	362	0	0	1	-360	360	104.1263	-13.4584	-102.9160	6.7935	0.0000	0.0000	0.0000	0.0000;
	170	152	0.009341	0.05225	0.087701	305	305	305	0	0	1	-360	360	-20.0132	58.1625	20.3624	-66.2910	0.0000	0.0000	0.0000	0.0000;
	146	135	0.006141	0.032521	0.052456	385	385	385	0	0	1	-360	360	-178.1545	34.2261	179.8072	-31.9336	0.0000	0.0000	0.0000	0.0000;
	147	134	0.00438	0.03188	0.050723	457	457	457	0	0	1	-360	360	-186.3411	25.9387	187.6064	-22.9774	0.0000	0.0000	0.0000	0.0000;
	165	147	0.000479	0.00331	0.005711	446	446	446	0	0	1	-360	360	-53.0671	19.2448	53.0795	-19.8623	0.0000	0.0000	0.0000	0.0000;
	166	146	0.000479	0.00331	0.005711	446	446	446	0	0	1	-360	360	-71.8214	21.2351	71.8433	-21.7875	0.0000	0.0000	0.0000	0.0000;
	154	143	0.010539	0.076859	0.122355	373	373	373	0	0	1	-360	360	116.0718	-50.6696	-114.6689	46.4596	0.0000	0.0000	0.0000	0.0000;
	160	148	0.00469	0.034651	0.053821	427	427	427	0	0	1	-360	360	-150.1317	-36.5389	151.0618	36.8864	0.0000	0.0000	0.0000	0.0000;
	149	141	0.006469	0.0413	0.069212	427	427	427	0	0	1	-360	360	116.1888	23.5343	-115.4394	-27.1532	0.0000	0.0000	0.0000	0.0000;
	169	141	0.00105	0.007211	0.01028	373	373	373	0	0	1	-360	360	-33.5912	-8.4539	33.6016	7.2971	0.0000	0.0000	0.0000	0.0000;
	169	160	0.006099	0.044831	0.070954	373	373	373	0	0	1	-360	360	4.7577	-2.8875	-4.7565	-5.5709	0.0000	0.0000	0.0000	0.0000;
	177	136	0.002211	0.01655	0.024781	373	373	373	0	0	1	-360	360	64.7879	31.5489	-64.6889	-33.7175	0.0000	0.0000	0.0000	0.0000;
	179	178	0.005169	0.036979	0.058951	373	373	373	0	0	1	-360	360	30.0624	1.8600	-30.0218	-8.5527	0.0000	0.0000	0.0000	0.0000;
	181	174	0.002401	0.017789	0.027588	381	381	381	0	0	1	-360	360	-162.7907	6.7350	163.3749	-5.4267	0.0000	0.0000	0.0000	0.0000;
...